functions/OneTimeScripts/validationAgainstOpenDSS_MATLAB/ieee123_1ph_created/results/pv010_batt010/powers22.csv
Element, Terminal, P(kW), Q(kvar),  P_Normal, Q_Normal, P_Emergency, Q_Emergency
"Line.L115"             ,   1,       743.1,       319.0,         0.0,         0.0,         0.0,         0.0
"Line.L115"             ,   2,      -740.5,      -313.7
"Line.L1"               ,   1,         5.7,         2.8,         0.0,         0.0,         0.0,         0.0
"Line.L1"               ,   2,        -5.7,        -2.8
"Line.L2"               ,   1,        28.4,        14.2,         0.0,         0.0,         0.0,         0.0
"Line.L2"               ,   2,       -28.3,       -14.2
"Line.L3"               ,   1,       695.2,       291.0,         0.0,         0.0,         0.0,         0.0
"Line.L3"               ,   2,      -693.5,      -287.5
"Line.L4"               ,   1,        11.3,         5.7,         0.0,         0.0,         0.0,         0.0
"Line.L4"               ,   2,       -11.3,        -5.7
"Line.L5"               ,   1,        17.0,         8.5,         0.0,         0.0,         0.0,         0.0
"Line.L5"               ,   2,       -17.0,        -8.5
"Line.L6"               ,   1,        11.3,         5.7,         0.0,         0.0,         0.0,         0.0
"Line.L6"               ,   2,       -11.3,        -5.7
"Line.L7"               ,   1,       687.8,       284.7,         0.0,         0.0,         0.0,         0.0
"Line.L7"               ,   2,      -686.7,      -282.4
"Line.L8"               ,   1,         5.7,         2.8,         0.0,         0.0,         0.0,         0.0
"Line.L8"               ,   2,        -5.7,        -2.8
"Line.L9"               ,   1,        15.0,        14.2,         0.0,         0.0,         0.0,         0.0
"Line.L9"               ,   2,       -15.0,       -14.2
"Line.L10"              ,   1,       666.0,       265.4,         0.0,         0.0,         0.0,         0.0
"Line.L10"              ,   2,      -664.4,      -262.1
"Line.L11"              ,   1,        17.0,         8.5,         0.0,         0.0,         0.0,         0.0
"Line.L11"              ,   2,       -17.0,        -8.5
"Line.L12"              ,   1,        28.3,        14.2,         0.0,         0.0,         0.0,         0.0
"Line.L12"              ,   2,       -28.3,       -14.2
"Line.L13"              ,   1,       233.8,       186.5,         0.0,         0.0,         0.0,         0.0
"Line.L13"              ,   2,      -233.0,      -185.0
"Line.L14"              ,   1,        11.3,         5.7,         0.0,         0.0,         0.0,         0.0
"Line.L14"              ,   2,       -11.3,        -5.7
"Line.L15"              ,   1,         5.7,         2.8,         0.0,         0.0,         0.0,         0.0
"Line.L15"              ,   2,        -5.7,        -2.8
"Line.L16"              ,   1,        11.3,         5.7,         0.0,         0.0,         0.0,         0.0
"Line.L16"              ,   2,       -11.3,        -5.7
"Line.L17"              ,   1,         5.7,         2.8,         0.0,         0.0,         0.0,         0.0
"Line.L17"              ,   2,        -5.7,        -2.8
"Line.L18"              ,   1,        22.7,        11.3,         0.0,         0.0,         0.0,         0.0
"Line.L18"              ,   2,       -22.7,       -11.3
"Line.L19"              ,   1,        66.1,        39.7,         0.0,         0.0,         0.0,         0.0
"Line.L19"              ,   2,       -66.0,       -39.7
"Line.L20"              ,   1,        11.3,         5.7,         0.0,         0.0,         0.0,         0.0
"Line.L20"              ,   2,       -11.3,        -5.7
"Line.L21"              ,   1,        11.3,         5.7,         0.0,         0.0,         0.0,         0.0
"Line.L21"              ,   2,       -11.3,        -5.7
"Line.L22"              ,   1,        54.7,        34.0,         0.0,         0.0,         0.0,         0.0
"Line.L22"              ,   2,       -54.7,       -34.0
"Line.L23"              ,   1,        11.3,         5.7,         0.0,         0.0,         0.0,         0.0
"Line.L23"              ,   2,       -11.3,        -5.7
"Line.L24"              ,   1,        43.4,        28.3,         0.0,         0.0,         0.0,         0.0
"Line.L24"              ,   2,       -43.3,       -28.3
"Line.L25"              ,   1,        22.7,        11.3,         0.0,         0.0,         0.0,         0.0
"Line.L25"              ,   2,       -22.7,       -11.3
"Line.L26"              ,   1,        20.7,        17.0,         0.0,         0.0,         0.0,         0.0
"Line.L26"              ,   2,       -20.7,       -17.0
"Line.L27"              ,   1,        11.3,         5.7,         0.0,         0.0,         0.0,         0.0
"Line.L27"              ,   2,       -11.3,        -5.7
"Line.L28"              ,   1,        11.3,         5.7,         0.0,         0.0,         0.0,         0.0
"Line.L28"              ,   2,       -11.3,        -5.7
"Line.L29"              ,   1,        11.3,         5.7,         0.0,         0.0,         0.0,         0.0
"Line.L29"              ,   2,       -11.3,        -5.7
"Line.L30"              ,   1,        22.7,        11.3,         0.0,         0.0,         0.0,         0.0
"Line.L30"              ,   2,       -22.7,       -11.3
"Line.L31"              ,   1,        11.3,         5.7,         0.0,         0.0,         0.0,         0.0
"Line.L31"              ,   2,       -11.3,        -5.7
"Line.L32"              ,   1,        -0.0,        -0.0,         0.0,         0.0,         0.0,         0.0
"Line.L32"              ,   2,         0.0,        -0.0
"Line.L33"              ,   1,         5.7,         2.8,         0.0,         0.0,         0.0,         0.0
"Line.L33"              ,   2,        -5.7,        -2.8
"Line.L34"              ,   1,        17.0,         8.5,         0.0,         0.0,         0.0,         0.0
"Line.L34"              ,   2,       -17.0,        -8.5
"Line.L35"              ,   1,        22.7,        11.3,         0.0,         0.0,         0.0,         0.0
"Line.L35"              ,   2,       -22.7,       -11.3
"Line.L36"              ,   1,       110.1,       116.6,         0.0,         0.0,         0.0,         0.0
"Line.L36"              ,   2,      -110.1,      -116.5
"Line.L37"              ,   1,        11.3,         5.7,         0.0,         0.0,         0.0,         0.0
"Line.L37"              ,   2,       -11.3,        -5.7
"Line.L38"              ,   1,        11.3,         5.7,         0.0,         0.0,         0.0,         0.0
"Line.L38"              ,   2,       -11.3,        -5.7
"Line.L39"              ,   1,         5.7,         2.8,         0.0,         0.0,         0.0,         0.0
"Line.L39"              ,   2,        -5.7,        -2.8
"Line.L40"              ,   1,         5.7,         2.8,         0.0,         0.0,         0.0,         0.0
"Line.L40"              ,   2,        -5.7,        -2.8
"Line.L41"              ,   1,       104.4,       113.6,         0.0,         0.0,         0.0,         0.0
"Line.L41"              ,   2,      -104.4,      -113.5
"Line.L42"              ,   1,        11.3,         5.7,         0.0,         0.0,         0.0,         0.0
"Line.L42"              ,   2,       -11.3,        -5.7
"Line.L43"              ,   1,        87.3,       105.0,         0.0,         0.0,         0.0,         0.0
"Line.L43"              ,   2,       -87.3,      -104.9
"Line.L44"              ,   1,        11.3,         5.7,         0.0,         0.0,         0.0,         0.0
"Line.L44"              ,   2,       -11.3,        -5.7
"Line.L45"              ,   1,        76.0,        99.3,         0.0,         0.0,         0.0,         0.0
"Line.L45"              ,   2,       -75.9,       -99.2
"Line.L46"              ,   1,         5.7,         2.8,         0.0,         0.0,         0.0,         0.0
"Line.L46"              ,   2,        -5.7,        -2.8
"Line.L47"              ,   1,       -10.5,        42.5,         0.0,         0.0,         0.0,         0.0
"Line.L47"              ,   2,        10.5,       -42.5
"Line.L48"              ,   1,        56.7,        35.4,         0.0,         0.0,         0.0,         0.0
"Line.L48"              ,   2,       -56.7,       -35.4
"Line.L49"              ,   1,        17.0,         8.5,         0.0,         0.0,         0.0,         0.0
"Line.L49"              ,   2,       -17.0,        -8.5
"Line.L50"              ,   1,         5.7,         2.8,         0.0,         0.0,         0.0,         0.0
"Line.L50"              ,   2,        -5.7,        -2.8
"Line.L51"              ,   1,         0.0,        -0.0,         0.0,         0.0,         0.0,         0.0
"Line.L51"              ,   2,         0.0,         0.0
"Line.L52"              ,   1,       390.3,        54.4,         0.0,         0.0,         0.0,         0.0
"Line.L52"              ,   2,      -389.9,       -53.7
"Line.L53"              ,   1,       378.6,        48.1,         0.0,         0.0,         0.0,         0.0
"Line.L53"              ,   2,      -378.4,       -47.7
"Line.L54"              ,   1,        11.3,         5.7,         0.0,         0.0,         0.0,         0.0
"Line.L54"              ,   2,       -11.3,        -5.7
"Line.L55"              ,   1,       367.1,        42.0,         0.0,         0.0,         0.0,         0.0
"Line.L55"              ,   2,      -366.6,       -41.0
"Line.L56"              ,   1,         5.7,         2.8,         0.0,         0.0,         0.0,         0.0
"Line.L56"              ,   2,        -5.7,        -2.8
"Line.L57"              ,   1,         4.7,         5.7,         0.0,         0.0,         0.0,         0.0
"Line.L57"              ,   2,        -4.7,        -5.7
"Line.L58"              ,   1,       361.9,        35.3,         0.0,         0.0,         0.0,         0.0
"Line.L58"              ,   2,      -360.9,       -33.2
"Line.L59"              ,   1,         5.7,         2.8,         0.0,         0.0,         0.0,         0.0
"Line.L59"              ,   2,        -5.7,        -2.8
"Line.L60"              ,   1,         0.0,        -0.0,         0.0,         0.0,         0.0,         0.0
"Line.L60"              ,   2,        -0.0,         0.0
"Line.L61"              ,   1,        58.3,        59.5,         0.0,         0.0,         0.0,         0.0
"Line.L61"              ,   2,       -58.3,       -59.5
"Line.L62"              ,   1,        46.9,        53.8,         0.0,         0.0,         0.0,         0.0
"Line.L62"              ,   2,       -46.9,       -53.8
"Line.L63"              ,   1,        35.6,        48.1,         0.0,         0.0,         0.0,         0.0
"Line.L63"              ,   2,       -35.5,       -48.1
"Line.L64"              ,   1,        14.3,        38.2,         0.0,         0.0,         0.0,         0.0
"Line.L64"              ,   2,       -14.3,       -38.2
"Line.L65"              ,   1,        21.3,         9.9,         0.0,         0.0,         0.0,         0.0
"Line.L65"              ,   2,       -21.3,        -9.9
"Line.L66"              ,   1,        34.0,        17.0,         0.0,         0.0,         0.0,         0.0
"Line.L66"              ,   2,       -34.0,       -17.0
"Line.L67"              ,   1,       151.0,      -109.4,         0.0,         0.0,         0.0,         0.0
"Line.L67"              ,   2,      -150.9,       109.6
"Line.L68"              ,   1,       111.5,        62.6,         0.0,         0.0,         0.0,         0.0
"Line.L68"              ,   2,      -111.5,       -62.5
"Line.L69"              ,   1,        28.4,        14.2,         0.0,         0.0,         0.0,         0.0
"Line.L69"              ,   2,       -28.3,       -14.2
"Line.L70"              ,   1,        17.0,         8.5,         0.0,         0.0,         0.0,         0.0
"Line.L70"              ,   2,       -17.0,        -8.5
"Line.L71"              ,   1,        11.3,         5.7,         0.0,         0.0,         0.0,         0.0
"Line.L71"              ,   2,       -11.3,        -5.7
"Line.L72"              ,   1,        34.0,        17.0,         0.0,         0.0,         0.0,         0.0
"Line.L72"              ,   2,       -34.0,       -17.0
"Line.L73"              ,   1,       116.8,      -126.7,         0.0,         0.0,         0.0,         0.0
"Line.L73"              ,   2,      -116.8,       126.8
"Line.L74"              ,   1,        22.7,        11.3,         0.0,         0.0,         0.0,         0.0
"Line.L74"              ,   2,       -22.7,       -11.3
"Line.L75"              ,   1,        11.3,         5.7,         0.0,         0.0,         0.0,         0.0
"Line.L75"              ,   2,       -11.3,        -5.7
"Line.L76"              ,   1,        68.6,      -164.7,         0.0,         0.0,         0.0,         0.0
"Line.L76"              ,   2,       -68.5,       165.0
"Line.L77"              ,   1,        60.4,       -13.1,         0.0,         0.0,         0.0,         0.0
"Line.L77"              ,   2,       -60.4,        13.1
"Line.L78"              ,   1,        57.2,      -170.7,         0.0,         0.0,         0.0,         0.0
"Line.L78"              ,   2,       -57.1,       170.8
"Line.L79"              ,   1,        11.3,         5.7,         0.0,         0.0,         0.0,         0.0
"Line.L79"              ,   2,       -11.3,        -5.7
"Line.L80"              ,   1,        45.8,      -176.4,         0.0,         0.0,         0.0,         0.0
"Line.L80"              ,   2,       -45.6,       176.8
"Line.L81"              ,   1,        34.3,      -182.4,         0.0,         0.0,         0.0,         0.0
"Line.L81"              ,   2,       -34.2,       182.6
"Line.L82"              ,   1,        17.2,      -191.1,         0.0,         0.0,         0.0,         0.0
"Line.L82"              ,   2,       -17.1,       191.3
"Line.L83"              ,   1,        17.0,         8.5,         0.0,         0.0,         0.0,         0.0
"Line.L83"              ,   2,       -17.0,        -8.5
"Line.L84"              ,   1,         5.8,      -197.0,         0.0,         0.0,         0.0,         0.0
"Line.L84"              ,   2,        -5.7,       197.2
"Line.L85"              ,   1,        11.3,         5.7,         0.0,         0.0,         0.0,         0.0
"Line.L85"              ,   2,       -11.3,        -5.7
"Line.L86"              ,   1,        54.7,       -15.9,         0.0,         0.0,         0.0,         0.0
"Line.L86"              ,   2,       -54.7,        16.0
"Line.L87"              ,   1,        11.3,       -11.0,         0.0,         0.0,         0.0,         0.0
"Line.L87"              ,   2,       -11.3,        11.0
"Line.L88"              ,   1,        45.4,       -10.6,         0.0,         0.0,         0.0,         0.0
"Line.L88"              ,   2,       -45.3,        10.7
"Line.L89"              ,   1,        11.3,       -11.0,         0.0,         0.0,         0.0,         0.0
"Line.L89"              ,   2,       -11.3,        11.0
"Line.L90"              ,   1,        34.0,         0.3,         0.0,         0.0,         0.0,         0.0
"Line.L90"              ,   2,       -34.0,        -0.3
"Line.L91"              ,   1,        11.3,       -11.0,         0.0,         0.0,         0.0,         0.0
"Line.L91"              ,   2,       -11.3,        11.0
"Line.L92"              ,   1,        22.7,        11.3,         0.0,         0.0,         0.0,         0.0
"Line.L92"              ,   2,       -22.7,       -11.3
"Line.L93"              ,   1,        11.3,         5.7,         0.0,         0.0,         0.0,         0.0
"Line.L93"              ,   2,       -11.3,        -5.7
"Line.L94"              ,   1,        11.3,         5.7,         0.0,         0.0,         0.0,         0.0
"Line.L94"              ,   2,       -11.3,        -5.7
"Line.L95"              ,   1,         5.7,         2.8,         0.0,         0.0,         0.0,         0.0
"Line.L95"              ,   2,        -5.7,        -2.8
"Line.L96"              ,   1,        20.7,        17.0,         0.0,         0.0,         0.0,         0.0
"Line.L96"              ,   2,       -20.7,       -17.0
"Line.L97"              ,   1,         9.3,        11.3,         0.0,         0.0,         0.0,         0.0
"Line.L97"              ,   2,        -9.3,       -11.3
"Line.L98"              ,   1,        -2.0,         5.7,         0.0,         0.0,         0.0,         0.0
"Line.L98"              ,   2,         2.0,        -5.7
"Line.L99"              ,   1,         0.0,        -0.0,         0.0,         0.0,         0.0,         0.0
"Line.L99"              ,   2,         0.0,         0.0
"Line.L118"             ,   1,        90.8,        45.5,         0.0,         0.0,         0.0,         0.0
"Line.L118"             ,   2,       -90.8,       -45.5
"Line.L100"             ,   1,        28.4,        14.2,         0.0,         0.0,         0.0,         0.0
"Line.L100"             ,   2,       -28.3,       -14.2
"Line.L101"             ,   1,        62.4,        31.3,         0.0,         0.0,         0.0,         0.0
"Line.L101"             ,   2,       -62.4,       -31.2
"Line.L102"             ,   1,        22.7,        11.3,         0.0,         0.0,         0.0,         0.0
"Line.L102"             ,   2,       -22.7,       -11.3
"Line.L103"             ,   1,        11.3,         5.7,         0.0,         0.0,         0.0,         0.0
"Line.L103"             ,   2,       -11.3,        -5.7
"Line.L104"             ,   1,        22.7,        11.3,         0.0,         0.0,         0.0,         0.0
"Line.L104"             ,   2,       -22.7,       -11.3
"Line.L105"             ,   1,        39.7,        19.9,         0.0,         0.0,         0.0,         0.0
"Line.L105"             ,   2,       -39.7,       -19.9
"Line.L106"             ,   1,        11.3,         5.7,         0.0,         0.0,         0.0,         0.0
"Line.L106"             ,   2,       -11.3,        -5.7
"Line.L107"             ,   1,        39.7,        19.9,         0.0,         0.0,         0.0,         0.0
"Line.L107"             ,   2,       -39.7,       -19.9
"Line.L108"             ,   1,         0.0,        -0.0,         0.0,         0.0,         0.0,         0.0
"Line.L108"             ,   2,         0.0,         0.0
"Line.L109"             ,   1,        28.4,        14.2,         0.0,         0.0,         0.0,         0.0
"Line.L109"             ,   2,       -28.3,       -14.2
"Line.L110"             ,   1,         5.7,         2.8,         0.0,         0.0,         0.0,         0.0
"Line.L110"             ,   2,        -5.7,        -2.8
"Line.L111"             ,   1,        22.7,        11.3,         0.0,         0.0,         0.0,         0.0
"Line.L111"             ,   2,       -22.7,       -11.3
"Line.L112"             ,   1,        17.0,         8.5,         0.0,         0.0,         0.0,         0.0
"Line.L112"             ,   2,       -17.0,        -8.5
"Line.L113"             ,   1,         5.7,         2.8,         0.0,         0.0,         0.0,         0.0
"Line.L113"             ,   2,        -5.7,        -2.8
"Line.L114"             ,   1,       144.3,       133.9,         0.0,         0.0,         0.0,         0.0
"Line.L114"             ,   2,      -144.2,      -133.6
"Line.L116"             ,   1,       402.3,        61.4,         0.0,         0.0,         0.0,         0.0
"Line.L116"             ,   2,      -401.6,       -60.0
"Line.L117"             ,   1,       296.9,       -29.1,         0.0,         0.0,         0.0,         0.0
"Line.L117"             ,   2,      -296.6,        29.8
"Line.SW1"              ,   1,       743.1,       319.0,         0.0,         0.0,         0.0,         0.0
"Line.SW1"              ,   2,      -743.1,      -319.0
"Line.SW2"              ,   1,       402.3,        61.4,         0.0,         0.0,         0.0,         0.0
"Line.SW2"              ,   2,      -402.3,       -61.4
"Line.SW3"              ,   1,       144.3,       133.9,         0.0,         0.0,         0.0,         0.0
"Line.SW3"              ,   2,      -144.3,      -133.9
"Line.SW4"              ,   1,       296.9,       -29.1,         0.0,         0.0,         0.0,         0.0
"Line.SW4"              ,   2,      -296.9,        29.1
"Line.SW5"              ,   1,        90.8,        45.5,         0.0,         0.0,         0.0,         0.0
"Line.SW5"              ,   2,       -90.8,       -45.5
"Line.XFM1"             ,   1,         0.0,         0.0,         0.0,         0.0,         0.0,         0.0
"Line.XFM1"             ,   2,         0.0,         0.0
"Transformer.REG1A"     ,   1,       743.1,       319.0,         0.0,         0.0,         0.0,         0.0
"Transformer.REG1A"     ,   2,      -743.1,      -319.0
"Transformer.REG2A"     ,   1,        17.0,         8.5,         0.0,         0.0,         0.0,         0.0
"Transformer.REG2A"     ,   2,       -17.0,        -8.5
"Transformer.REG3A"     ,   1,        22.7,        11.3,         0.0,         0.0,         0.0,         0.0
"Transformer.REG3A"     ,   2,       -22.7,       -11.3
"Transformer.REG4A"     ,   1,       296.9,       -29.1,         0.0,         0.0,         0.0,         0.0
"Transformer.REG4A"     ,   2,      -296.9,        29.1
"Load.S1"               ,   1,        11.3,         5.7
"Load.S2"               ,   1,         5.7,         2.8
"Load.S4"               ,   1,        11.3,         5.7
"Load.S5"               ,   1,         5.7,         2.8
"Load.S6"               ,   1,        11.3,         5.7
"Load.S7"               ,   1,         5.7,         2.8
"Load.S9"               ,   1,        11.3,         5.7
"Load.S10"              ,   1,         5.7,         2.8
"Load.S11"              ,   1,        11.3,         5.7
"Load.S12"              ,   1,         5.7,         2.8
"Load.S16"              ,   1,        11.3,         5.7
"Load.S17"              ,   1,         5.7,         2.8
"Load.S19"              ,   1,        11.3,         5.7
"Load.S20"              ,   1,        11.3,         5.7
"Load.S22"              ,   1,        11.3,         5.7
"Load.S24"              ,   1,        11.3,         5.7
"Load.S28"              ,   1,        11.3,         5.7
"Load.S29"              ,   1,        11.3,         5.7
"Load.S30"              ,   1,        11.3,         5.7
"Load.S31"              ,   1,         5.7,         2.8
"Load.S32"              ,   1,         5.7,         2.8
"Load.S33"              ,   1,        11.3,         5.7
"Load.S34"              ,   1,        11.3,         5.7
"Load.S35"              ,   1,        11.3,         5.7
"Load.S37"              ,   1,        11.3,         5.7
"Load.S38"              ,   1,         5.7,         2.8
"Load.S39"              ,   1,         5.7,         2.8
"Load.S41"              ,   1,         5.7,         2.8
"Load.S42"              ,   1,         5.7,         2.8
"Load.S43"              ,   1,        11.3,         5.7
"Load.S45"              ,   1,         5.7,         2.8
"Load.S46"              ,   1,         5.7,         2.8
"Load.S47"              ,   1,        29.8,        21.3
"Load.S48"              ,   1,        59.5,        42.5
"Load.S49"              ,   1,        39.7,        26.9
"Load.S50"              ,   1,        11.3,         5.7
"Load.S51"              ,   1,         5.7,         2.8
"Load.S52"              ,   1,        11.3,         5.7
"Load.S53"              ,   1,        11.3,         5.7
"Load.S55"              ,   1,         5.7,         2.8
"Load.S56"              ,   1,         5.7,         2.8
"Load.S58"              ,   1,         5.7,         2.8
"Load.S59"              ,   1,         5.7,         2.8
"Load.S60"              ,   1,         5.7,         2.8
"Load.S62"              ,   1,        11.3,         5.7
"Load.S63"              ,   1,        11.3,         5.7
"Load.S64"              ,   1,        21.3,         9.9
"Load.S65"              ,   1,        39.7,        28.3
"Load.S66"              ,   1,        21.3,         9.9
"Load.S68"              ,   1,         5.7,         2.8
"Load.S69"              ,   1,        11.3,         5.7
"Load.S70"              ,   1,         5.7,         2.8
"Load.S71"              ,   1,        11.3,         5.7
"Load.S73"              ,   1,        11.3,         5.7
"Load.S74"              ,   1,        11.3,         5.7
"Load.S75"              ,   1,        11.3,         5.7
"Load.S76"              ,   1,        69.4,        51.0
"Load.S77"              ,   1,        11.3,         5.7
"Load.S79"              ,   1,        11.3,         5.7
"Load.S80"              ,   1,        11.3,         5.7
"Load.S82"              ,   1,        11.3,         5.7
"Load.S83"              ,   1,         5.7,         2.8
"Load.S84"              ,   1,         5.7,         2.8
"Load.S85"              ,   1,        11.3,         5.7
"Load.S86"              ,   1,         5.7,         2.8
"Load.S87"              ,   1,        11.3,         5.7
"Load.S88"              ,   1,        11.3,         5.7
"Load.S90"              ,   1,        11.3,         5.7
"Load.S92"              ,   1,        11.3,         5.7
"Load.S94"              ,   1,        11.3,         5.7
"Load.S95"              ,   1,         5.7,         2.8
"Load.S96"              ,   1,         5.7,         2.8
"Load.S98"              ,   1,        11.3,         5.7
"Load.S99"              ,   1,        11.3,         5.7
"Load.S100"             ,   1,        11.3,         5.7
"Load.S102"             ,   1,         5.7,         2.8
"Load.S103"             ,   1,        11.3,         5.7
"Load.S104"             ,   1,        11.3,         5.7
"Load.S106"             ,   1,        11.3,         5.7
"Load.S107"             ,   1,        11.3,         5.7
"Load.S109"             ,   1,        11.3,         5.7
"Load.S111"             ,   1,         5.7,         2.8
"Load.S112"             ,   1,         5.7,         2.8
"Load.S113"             ,   1,        11.3,         5.7
"Load.S114"             ,   1,         5.7,         2.8
"Generator.C83"         ,   1,        -0.0,      -200.0
"Generator.C88"         ,   1,        -0.0,       -16.7
"Generator.C90"         ,   1,        -0.0,       -16.7
"Generator.C92"         ,   1,        -0.0,       -16.7
"PVSystem.9"            ,   1,       -13.3,        -0.0
"PVSystem.28"           ,   1,       -13.3,        -0.0
"PVSystem.48"           ,   1,       -70.0,        -0.0
"PVSystem.58"           ,   1,        -6.7,        -0.0
"PVSystem.65"           ,   1,       -46.7,        -0.0
"PVSystem.76"           ,   1,       -81.7,        -0.0
"PVSystem.87"           ,   1,       -13.3,        -0.0
"PVSystem.100"          ,   1,       -13.3,        -0.0
"Storage.BATTERY9"      ,   1,         0.0,         0.0
"Storage.BATTERY28"     ,   1,         0.0,         0.0
"Storage.BATTERY48"     ,   1,         0.0,         0.0
"Storage.BATTERY58"     ,   1,         0.0,         0.0
"Storage.BATTERY65"     ,   1,         0.0,         0.0
"Storage.BATTERY76"     ,   1,         0.0,         0.0
"Storage.BATTERY87"     ,   1,         0.0,         0.0
"Storage.BATTERY100"    ,   1,         0.0,         0.0
